functions/OneTimeScripts/validationAgainstOpenDSS_MATLAB/ieee123_1ph_created/results/pv000_batt000/powers19.csv
Element, Terminal, P(kW), Q(kvar),  P_Normal, Q_Normal, P_Emergency, Q_Emergency
"Line.L115"             ,   1,      1195.0,       453.4,       291.9,       110.7,         0.0,         0.0
"Line.L115"             ,   2,     -1188.5,      -440.1
"Line.L1"               ,   1,         6.7,         3.3,         0.0,         0.0,         0.0,         0.0
"Line.L1"               ,   2,        -6.7,        -3.3
"Line.L2"               ,   1,        33.4,        16.7,         0.0,         0.0,         0.0,         0.0
"Line.L2"               ,   2,       -33.3,       -16.7
"Line.L3"               ,   1,      1135.2,       413.4,       235.1,        85.6,         0.0,         0.0
"Line.L3"               ,   2,     -1130.8,      -404.4
"Line.L4"               ,   1,        13.3,         6.7,         0.0,         0.0,         0.0,         0.0
"Line.L4"               ,   2,       -13.3,        -6.7
"Line.L5"               ,   1,        20.0,        10.0,         0.0,         0.0,         0.0,         0.0
"Line.L5"               ,   2,       -20.0,       -10.0
"Line.L6"               ,   1,        13.3,         6.7,         0.0,         0.0,         0.0,         0.0
"Line.L6"               ,   2,       -13.3,        -6.7
"Line.L7"               ,   1,      1124.1,       401.0,       227.3,        81.1,         0.0,         0.0
"Line.L7"               ,   2,     -1121.2,      -395.0
"Line.L8"               ,   1,         6.7,         3.3,         0.0,         0.0,         0.0,         0.0
"Line.L8"               ,   2,        -6.7,        -3.3
"Line.L9"               ,   1,        33.4,        16.7,         0.0,         0.0,         0.0,         0.0
"Line.L9"               ,   2,       -33.3,       -16.7
"Line.L10"              ,   1,      1081.1,       375.0,       185.2,        64.2,         0.0,         0.0
"Line.L10"              ,   2,     -1077.1,      -366.7
"Line.L11"              ,   1,        20.0,        10.0,         0.0,         0.0,         0.0,         0.0
"Line.L11"              ,   2,       -20.0,       -10.0
"Line.L12"              ,   1,        33.3,        16.7,         0.0,         0.0,         0.0,         0.0
"Line.L12"              ,   2,       -33.3,       -16.7
"Line.L13"              ,   1,       374.4,       222.1,         0.0,         0.0,         0.0,         0.0
"Line.L13"              ,   2,      -372.7,      -218.7
"Line.L14"              ,   1,        13.3,         6.7,         0.0,         0.0,         0.0,         0.0
"Line.L14"              ,   2,       -13.3,        -6.7
"Line.L15"              ,   1,         6.7,         3.3,         0.0,         0.0,         0.0,         0.0
"Line.L15"              ,   2,        -6.7,        -3.3
"Line.L16"              ,   1,        13.3,         6.7,         0.0,         0.0,         0.0,         0.0
"Line.L16"              ,   2,       -13.3,        -6.7
"Line.L17"              ,   1,         6.7,         3.3,         0.0,         0.0,         0.0,         0.0
"Line.L17"              ,   2,        -6.7,        -3.3
"Line.L18"              ,   1,        26.7,        13.3,         0.0,         0.0,         0.0,         0.0
"Line.L18"              ,   2,       -26.7,       -13.3
"Line.L19"              ,   1,        93.4,        46.8,         0.0,         0.0,         0.0,         0.0
"Line.L19"              ,   2,       -93.4,       -46.8
"Line.L20"              ,   1,        13.3,         6.7,         0.0,         0.0,         0.0,         0.0
"Line.L20"              ,   2,       -13.3,        -6.7
"Line.L21"              ,   1,        13.3,         6.7,         0.0,         0.0,         0.0,         0.0
"Line.L21"              ,   2,       -13.3,        -6.7
"Line.L22"              ,   1,        80.1,        40.1,         0.0,         0.0,         0.0,         0.0
"Line.L22"              ,   2,       -80.0,       -40.0
"Line.L23"              ,   1,        13.3,         6.7,         0.0,         0.0,         0.0,         0.0
"Line.L23"              ,   2,       -13.3,        -6.7
"Line.L24"              ,   1,        66.7,        33.4,         0.0,         0.0,         0.0,         0.0
"Line.L24"              ,   2,       -66.7,       -33.3
"Line.L25"              ,   1,        26.7,        13.3,         0.0,         0.0,         0.0,         0.0
"Line.L25"              ,   2,       -26.7,       -13.3
"Line.L26"              ,   1,        40.0,        20.0,         0.0,         0.0,         0.0,         0.0
"Line.L26"              ,   2,       -40.0,       -20.0
"Line.L27"              ,   1,        13.3,         6.7,         0.0,         0.0,         0.0,         0.0
"Line.L27"              ,   2,       -13.3,        -6.7
"Line.L28"              ,   1,        13.3,         6.7,         0.0,         0.0,         0.0,         0.0
"Line.L28"              ,   2,       -13.3,        -6.7
"Line.L29"              ,   1,        13.3,         6.7,         0.0,         0.0,         0.0,         0.0
"Line.L29"              ,   2,       -13.3,        -6.7
"Line.L30"              ,   1,        26.7,        13.3,         0.0,         0.0,         0.0,         0.0
"Line.L30"              ,   2,       -26.7,       -13.3
"Line.L31"              ,   1,        13.3,         6.7,         0.0,         0.0,         0.0,         0.0
"Line.L31"              ,   2,       -13.3,        -6.7
"Line.L32"              ,   1,         0.0,        -0.0,         0.0,         0.0,         0.0,         0.0
"Line.L32"              ,   2,        -0.0,        -0.0
"Line.L33"              ,   1,         6.7,         3.3,         0.0,         0.0,         0.0,         0.0
"Line.L33"              ,   2,        -6.7,        -3.3
"Line.L34"              ,   1,        20.0,        10.0,         0.0,         0.0,         0.0,         0.0
"Line.L34"              ,   2,       -20.0,       -10.0
"Line.L35"              ,   1,        26.7,        13.3,         0.0,         0.0,         0.0,         0.0
"Line.L35"              ,   2,       -26.7,       -13.3
"Line.L36"              ,   1,       212.3,       137.8,         0.0,         0.0,         0.0,         0.0
"Line.L36"              ,   2,      -212.1,      -137.5
"Line.L37"              ,   1,        13.3,         6.7,         0.0,         0.0,         0.0,         0.0
"Line.L37"              ,   2,       -13.3,        -6.7
"Line.L38"              ,   1,        13.3,         6.7,         0.0,         0.0,         0.0,         0.0
"Line.L38"              ,   2,       -13.3,        -6.7
"Line.L39"              ,   1,         6.7,         3.3,         0.0,         0.0,         0.0,         0.0
"Line.L39"              ,   2,        -6.7,        -3.3
"Line.L40"              ,   1,         6.7,         3.3,         0.0,         0.0,         0.0,         0.0
"Line.L40"              ,   2,        -6.7,        -3.3
"Line.L41"              ,   1,       205.4,       134.2,         0.0,         0.0,         0.0,         0.0
"Line.L41"              ,   2,      -205.3,      -133.8
"Line.L42"              ,   1,        13.3,         6.7,         0.0,         0.0,         0.0,         0.0
"Line.L42"              ,   2,       -13.3,        -6.7
"Line.L43"              ,   1,       185.3,       123.8,         0.0,         0.0,         0.0,         0.0
"Line.L43"              ,   2,      -185.1,      -123.6
"Line.L44"              ,   1,        13.3,         6.7,         0.0,         0.0,         0.0,         0.0
"Line.L44"              ,   2,       -13.3,        -6.7
"Line.L45"              ,   1,       171.8,       117.0,         0.0,         0.0,         0.0,         0.0
"Line.L45"              ,   2,      -171.7,      -116.7
"Line.L46"              ,   1,         6.7,         3.3,         0.0,         0.0,         0.0,         0.0
"Line.L46"              ,   2,        -6.7,        -3.3
"Line.L47"              ,   1,        70.0,        50.0,         0.0,         0.0,         0.0,         0.0
"Line.L47"              ,   2,       -70.0,       -50.0
"Line.L48"              ,   1,        66.7,        41.7,         0.0,         0.0,         0.0,         0.0
"Line.L48"              ,   2,       -66.7,       -41.7
"Line.L49"              ,   1,        20.0,        10.0,         0.0,         0.0,         0.0,         0.0
"Line.L49"              ,   2,       -20.0,       -10.0
"Line.L50"              ,   1,         6.7,         3.3,         0.0,         0.0,         0.0,         0.0
"Line.L50"              ,   2,        -6.7,        -3.3
"Line.L51"              ,   1,         0.0,        -0.0,         0.0,         0.0,         0.0,         0.0
"Line.L51"              ,   2,         0.0,        -0.0
"Line.L52"              ,   1,       654.1,       117.3,         0.0,         0.0,         0.0,         0.0
"Line.L52"              ,   2,      -653.2,      -115.4
"Line.L53"              ,   1,       639.9,       108.8,         0.0,         0.0,         0.0,         0.0
"Line.L53"              ,   2,      -639.3,      -107.6
"Line.L54"              ,   1,        13.3,         6.7,         0.0,         0.0,         0.0,         0.0
"Line.L54"              ,   2,       -13.3,        -6.7
"Line.L55"              ,   1,       626.0,       101.0,         0.0,         0.0,         0.0,         0.0
"Line.L55"              ,   2,      -624.5,       -97.9
"Line.L56"              ,   1,         6.7,         3.3,         0.0,         0.0,         0.0,         0.0
"Line.L56"              ,   2,        -6.7,        -3.3
"Line.L57"              ,   1,        13.3,         6.7,         0.0,         0.0,         0.0,         0.0
"Line.L57"              ,   2,       -13.3,        -6.7
"Line.L58"              ,   1,       611.1,        91.2,         0.0,         0.0,         0.0,         0.0
"Line.L58"              ,   2,      -608.1,       -85.0
"Line.L59"              ,   1,         6.7,         3.3,         0.0,         0.0,         0.0,         0.0
"Line.L59"              ,   2,        -6.7,        -3.3
"Line.L60"              ,   1,         0.0,        -0.0,         0.0,         0.0,         0.0,         0.0
"Line.L60"              ,   2,        -0.0,         0.0
"Line.L61"              ,   1,       123.9,        70.2,         0.0,         0.0,         0.0,         0.0
"Line.L61"              ,   2,      -123.7,       -70.1
"Line.L62"              ,   1,       110.4,        63.4,         0.0,         0.0,         0.0,         0.0
"Line.L62"              ,   2,      -110.3,       -63.4
"Line.L63"              ,   1,        96.9,        56.7,         0.0,         0.0,         0.0,         0.0
"Line.L63"              ,   2,       -96.8,       -56.7
"Line.L64"              ,   1,        71.8,        45.0,         0.0,         0.0,         0.0,         0.0
"Line.L64"              ,   2,       -71.7,       -45.0
"Line.L65"              ,   1,        25.0,        11.6,         0.0,         0.0,         0.0,         0.0
"Line.L65"              ,   2,       -25.0,       -11.7
"Line.L66"              ,   1,        40.0,        20.0,         0.0,         0.0,         0.0,         0.0
"Line.L66"              ,   2,       -40.0,       -20.0
"Line.L67"              ,   1,       289.6,       -84.2,         0.0,         0.0,         0.0,         0.0
"Line.L67"              ,   2,      -289.3,        84.8
"Line.L68"              ,   1,       147.0,        73.8,         0.0,         0.0,         0.0,         0.0
"Line.L68"              ,   2,      -146.9,       -73.6
"Line.L69"              ,   1,        33.4,        16.7,         0.0,         0.0,         0.0,         0.0
"Line.L69"              ,   2,       -33.3,       -16.7
"Line.L70"              ,   1,        20.0,        10.0,         0.0,         0.0,         0.0,         0.0
"Line.L70"              ,   2,       -20.0,       -10.0
"Line.L71"              ,   1,        13.3,         6.7,         0.0,         0.0,         0.0,         0.0
"Line.L71"              ,   2,       -13.3,        -6.7
"Line.L72"              ,   1,        40.0,        20.0,         0.0,         0.0,         0.0,         0.0
"Line.L72"              ,   2,       -40.0,       -20.0
"Line.L73"              ,   1,       249.3,      -104.8,         0.0,         0.0,         0.0,         0.0
"Line.L73"              ,   2,      -249.1,       105.1
"Line.L74"              ,   1,        26.7,        13.3,         0.0,         0.0,         0.0,         0.0
"Line.L74"              ,   2,       -26.7,       -13.3
"Line.L75"              ,   1,        13.3,         6.7,         0.0,         0.0,         0.0,         0.0
"Line.L75"              ,   2,       -13.3,        -6.7
"Line.L76"              ,   1,        80.7,      -158.7,         0.0,         0.0,         0.0,         0.0
"Line.L76"              ,   2,       -80.5,       159.0
"Line.L77"              ,   1,        86.8,        -6.4,         0.0,         0.0,         0.0,         0.0
"Line.L77"              ,   2,       -86.7,         6.6
"Line.L78"              ,   1,        67.2,      -165.6,         0.0,         0.0,         0.0,         0.0
"Line.L78"              ,   2,       -67.1,       165.7
"Line.L79"              ,   1,        13.3,         6.7,         0.0,         0.0,         0.0,         0.0
"Line.L79"              ,   2,       -13.3,        -6.7
"Line.L80"              ,   1,        53.8,      -172.4,         0.0,         0.0,         0.0,         0.0
"Line.L80"              ,   2,       -53.6,       172.7
"Line.L81"              ,   1,        40.3,      -179.4,         0.0,         0.0,         0.0,         0.0
"Line.L81"              ,   2,       -40.2,       179.5
"Line.L82"              ,   1,        20.2,      -189.6,         0.0,         0.0,         0.0,         0.0
"Line.L82"              ,   2,       -20.1,       189.8
"Line.L83"              ,   1,        20.0,        10.0,         0.0,         0.0,         0.0,         0.0
"Line.L83"              ,   2,       -20.0,       -10.0
"Line.L84"              ,   1,         6.8,      -196.4,         0.0,         0.0,         0.0,         0.0
"Line.L84"              ,   2,        -6.7,       196.7
"Line.L85"              ,   1,        13.3,         6.7,         0.0,         0.0,         0.0,         0.0
"Line.L85"              ,   2,       -13.3,        -6.7
"Line.L86"              ,   1,        80.1,        -9.9,         0.0,         0.0,         0.0,         0.0
"Line.L86"              ,   2,       -80.0,        10.0
"Line.L87"              ,   1,        13.3,       -10.0,         0.0,         0.0,         0.0,         0.0
"Line.L87"              ,   2,       -13.3,        10.0
"Line.L88"              ,   1,        53.4,        -6.6,         0.0,         0.0,         0.0,         0.0
"Line.L88"              ,   2,       -53.3,         6.7
"Line.L89"              ,   1,        13.3,       -10.0,         0.0,         0.0,         0.0,         0.0
"Line.L89"              ,   2,       -13.3,        10.0
"Line.L90"              ,   1,        40.0,         3.3,         0.0,         0.0,         0.0,         0.0
"Line.L90"              ,   2,       -40.0,        -3.3
"Line.L91"              ,   1,        13.3,       -10.0,         0.0,         0.0,         0.0,         0.0
"Line.L91"              ,   2,       -13.3,        10.0
"Line.L92"              ,   1,        26.7,        13.3,         0.0,         0.0,         0.0,         0.0
"Line.L92"              ,   2,       -26.7,       -13.3
"Line.L93"              ,   1,        13.3,         6.7,         0.0,         0.0,         0.0,         0.0
"Line.L93"              ,   2,       -13.3,        -6.7
"Line.L94"              ,   1,        13.3,         6.7,         0.0,         0.0,         0.0,         0.0
"Line.L94"              ,   2,       -13.3,        -6.7
"Line.L95"              ,   1,         6.7,         3.3,         0.0,         0.0,         0.0,         0.0
"Line.L95"              ,   2,        -6.7,        -3.3
"Line.L96"              ,   1,        40.0,        20.0,         0.0,         0.0,         0.0,         0.0
"Line.L96"              ,   2,       -40.0,       -20.0
"Line.L97"              ,   1,        26.7,        13.3,         0.0,         0.0,         0.0,         0.0
"Line.L97"              ,   2,       -26.7,       -13.3
"Line.L98"              ,   1,        13.3,         6.7,         0.0,         0.0,         0.0,         0.0
"Line.L98"              ,   2,       -13.3,        -6.7
"Line.L99"              ,   1,         0.0,        -0.0,         0.0,         0.0,         0.0,         0.0
"Line.L99"              ,   2,         0.0,        -0.0
"Line.L118"             ,   1,       106.9,        53.6,         0.0,         0.0,         0.0,         0.0
"Line.L118"             ,   2,      -106.9,       -53.5
"Line.L100"             ,   1,        33.4,        16.7,         0.0,         0.0,         0.0,         0.0
"Line.L100"             ,   2,       -33.4,       -16.7
"Line.L101"             ,   1,        73.5,        36.8,         0.0,         0.0,         0.0,         0.0
"Line.L101"             ,   2,       -73.5,       -36.8
"Line.L102"             ,   1,        26.7,        13.4,         0.0,         0.0,         0.0,         0.0
"Line.L102"             ,   2,       -26.7,       -13.3
"Line.L103"             ,   1,        13.3,         6.7,         0.0,         0.0,         0.0,         0.0
"Line.L103"             ,   2,       -13.3,        -6.7
"Line.L104"             ,   1,        26.7,        13.3,         0.0,         0.0,         0.0,         0.0
"Line.L104"             ,   2,       -26.7,       -13.3
"Line.L105"             ,   1,        46.8,        23.4,         0.0,         0.0,         0.0,         0.0
"Line.L105"             ,   2,       -46.8,       -23.4
"Line.L106"             ,   1,        13.3,         6.7,         0.0,         0.0,         0.0,         0.0
"Line.L106"             ,   2,       -13.3,        -6.7
"Line.L107"             ,   1,        46.8,        23.4,         0.0,         0.0,         0.0,         0.0
"Line.L107"             ,   2,       -46.7,       -23.4
"Line.L108"             ,   1,         0.0,        -0.0,         0.0,         0.0,         0.0,         0.0
"Line.L108"             ,   2,         0.0,         0.0
"Line.L109"             ,   1,        33.4,        16.7,         0.0,         0.0,         0.0,         0.0
"Line.L109"             ,   2,       -33.4,       -16.7
"Line.L110"             ,   1,         6.7,         3.3,         0.0,         0.0,         0.0,         0.0
"Line.L110"             ,   2,        -6.7,        -3.3
"Line.L111"             ,   1,        26.7,        13.3,         0.0,         0.0,         0.0,         0.0
"Line.L111"             ,   2,       -26.7,       -13.3
"Line.L112"             ,   1,        20.0,        10.0,         0.0,         0.0,         0.0,         0.0
"Line.L112"             ,   2,       -20.0,       -10.0
"Line.L113"             ,   1,         6.7,         3.3,         0.0,         0.0,         0.0,         0.0
"Line.L113"             ,   2,        -6.7,        -3.3
"Line.L114"             ,   1,       252.6,       158.6,         0.0,         0.0,         0.0,         0.0
"Line.L114"             ,   2,      -252.3,      -157.9
"Line.L116"             ,   1,       669.4,       128.0,         0.0,         0.0,         0.0,         0.0
"Line.L116"             ,   2,      -667.4,      -124.0
"Line.L117"             ,   1,       477.5,        11.5,         0.0,         0.0,         0.0,         0.0
"Line.L117"             ,   2,      -476.6,        -9.7
"Line.SW1"              ,   1,      1195.0,       453.4,       291.9,       110.7,         0.0,         0.0
"Line.SW1"              ,   2,     -1195.0,      -453.4
"Line.SW2"              ,   1,       669.4,       128.0,         0.0,         0.0,         0.0,         0.0
"Line.SW2"              ,   2,      -669.4,      -128.0
"Line.SW3"              ,   1,       252.6,       158.6,         0.0,         0.0,         0.0,         0.0
"Line.SW3"              ,   2,      -252.6,      -158.6
"Line.SW4"              ,   1,       477.5,        11.5,         0.0,         0.0,         0.0,         0.0
"Line.SW4"              ,   2,      -477.5,       -11.5
"Line.SW5"              ,   1,       106.9,        53.6,         0.0,         0.0,         0.0,         0.0
"Line.SW5"              ,   2,      -106.9,       -53.6
"Line.XFM1"             ,   1,         0.0,         0.0,         0.0,         0.0,         0.0,         0.0
"Line.XFM1"             ,   2,         0.0,         0.0
"Transformer.REG1A"     ,   1,      1195.0,       453.4,         0.0,         0.0,         0.0,         0.0
"Transformer.REG1A"     ,   2,     -1195.0,      -453.4
"Transformer.REG2A"     ,   1,        20.0,        10.0,         0.0,         0.0,         0.0,         0.0
"Transformer.REG2A"     ,   2,       -20.0,       -10.0
"Transformer.REG3A"     ,   1,        26.7,        13.3,         0.0,         0.0,         0.0,         0.0
"Transformer.REG3A"     ,   2,       -26.7,       -13.3
"Transformer.REG4A"     ,   1,       477.5,        11.5,         0.0,         0.0,         0.0,         0.0
"Transformer.REG4A"     ,   2,      -477.5,       -11.5
"Load.S1"               ,   1,        13.3,         6.7
"Load.S2"               ,   1,         6.7,         3.3
"Load.S4"               ,   1,        13.3,         6.7
"Load.S5"               ,   1,         6.7,         3.3
"Load.S6"               ,   1,        13.3,         6.7
"Load.S7"               ,   1,         6.7,         3.3
"Load.S9"               ,   1,        13.3,         6.7
"Load.S10"              ,   1,         6.7,         3.3
"Load.S11"              ,   1,        13.3,         6.7
"Load.S12"              ,   1,         6.7,         3.3
"Load.S16"              ,   1,        13.3,         6.7
"Load.S17"              ,   1,         6.7,         3.3
"Load.S19"              ,   1,        13.3,         6.7
"Load.S20"              ,   1,        13.3,         6.7
"Load.S22"              ,   1,        13.3,         6.7
"Load.S24"              ,   1,        13.3,         6.7
"Load.S28"              ,   1,        13.3,         6.7
"Load.S29"              ,   1,        13.3,         6.7
"Load.S30"              ,   1,        13.3,         6.7
"Load.S31"              ,   1,         6.7,         3.3
"Load.S32"              ,   1,         6.7,         3.3
"Load.S33"              ,   1,        13.3,         6.7
"Load.S34"              ,   1,        13.3,         6.7
"Load.S35"              ,   1,        13.3,         6.7
"Load.S37"              ,   1,        13.3,         6.7
"Load.S38"              ,   1,         6.7,         3.3
"Load.S39"              ,   1,         6.7,         3.3
"Load.S41"              ,   1,         6.7,         3.3
"Load.S42"              ,   1,         6.7,         3.3
"Load.S43"              ,   1,        13.3,         6.7
"Load.S45"              ,   1,         6.7,         3.3
"Load.S46"              ,   1,         6.7,         3.3
"Load.S47"              ,   1,        35.0,        25.0
"Load.S48"              ,   1,        70.0,        50.0
"Load.S49"              ,   1,        46.7,        31.7
"Load.S50"              ,   1,        13.3,         6.7
"Load.S51"              ,   1,         6.7,         3.3
"Load.S52"              ,   1,        13.3,         6.7
"Load.S53"              ,   1,        13.3,         6.7
"Load.S55"              ,   1,         6.7,         3.3
"Load.S56"              ,   1,         6.7,         3.3
"Load.S58"              ,   1,         6.7,         3.3
"Load.S59"              ,   1,         6.7,         3.3
"Load.S60"              ,   1,         6.7,         3.3
"Load.S62"              ,   1,        13.3,         6.7
"Load.S63"              ,   1,        13.3,         6.7
"Load.S64"              ,   1,        25.0,        11.7
"Load.S65"              ,   1,        46.7,        33.3
"Load.S66"              ,   1,        25.0,        11.7
"Load.S68"              ,   1,         6.7,         3.3
"Load.S69"              ,   1,        13.3,         6.7
"Load.S70"              ,   1,         6.7,         3.3
"Load.S71"              ,   1,        13.3,         6.7
"Load.S73"              ,   1,        13.3,         6.7
"Load.S74"              ,   1,        13.3,         6.7
"Load.S75"              ,   1,        13.3,         6.7
"Load.S76"              ,   1,        81.7,        60.0
"Load.S77"              ,   1,        13.3,         6.7
"Load.S79"              ,   1,        13.3,         6.7
"Load.S80"              ,   1,        13.3,         6.7
"Load.S82"              ,   1,        13.3,         6.7
"Load.S83"              ,   1,         6.7,         3.3
"Load.S84"              ,   1,         6.7,         3.3
"Load.S85"              ,   1,        13.3,         6.7
"Load.S86"              ,   1,         6.7,         3.3
"Load.S87"              ,   1,        13.3,         6.7
"Load.S88"              ,   1,        13.3,         6.7
"Load.S90"              ,   1,        13.3,         6.7
"Load.S92"              ,   1,        13.3,         6.7
"Load.S94"              ,   1,        13.3,         6.7
"Load.S95"              ,   1,         6.7,         3.3
"Load.S96"              ,   1,         6.7,         3.3
"Load.S98"              ,   1,        13.3,         6.7
"Load.S99"              ,   1,        13.3,         6.7
"Load.S100"             ,   1,        13.3,         6.7
"Load.S102"             ,   1,         6.7,         3.3
"Load.S103"             ,   1,        13.3,         6.7
"Load.S104"             ,   1,        13.3,         6.7
"Load.S106"             ,   1,        13.3,         6.7
"Load.S107"             ,   1,        13.3,         6.7
"Load.S109"             ,   1,        13.3,         6.7
"Load.S111"             ,   1,         6.7,         3.3
"Load.S112"             ,   1,         6.7,         3.3
"Load.S113"             ,   1,        13.3,         6.7
"Load.S114"             ,   1,         6.7,         3.3
"Generator.C83"         ,   1,        -0.0,      -200.0
"Generator.C88"         ,   1,        -0.0,       -16.7
"Generator.C90"         ,   1,        -0.0,       -16.7
"Generator.C92"         ,   1,        -0.0,       -16.7
